Circuit: * C:\users\hammie\Desktop\LT2CircuiTikZ\Draft8.asc

Direct Newton iteration for .op point succeeded.

Date: Wed Sep 05 01:01:58 2018
Total elapsed time: 2.156 seconds.

tnom = 27
temp = 27
method = modified trap
totiter = 400444
traniter = 400434
tranpoints = 200218
accept = 120142
rejected = 80076
matrix size = 7
fillins = 1
solver = Normal
Matrix Compiler1: 428 bytes object code size  0.3/0.2/[0.2]
Matrix Compiler2:      44 opcodes  0.3/[0.3]/0.3

